RUNSPEC
DIMENS
   10 10 3 /
OIL
WATER
GAS
/

GRID
DX
 10*100 /
DY
 10*100 /
DZ
 3*10 /
/

PROPS
PVTW
 1.0 0.0 1.0 /
/
PVTO
 100 0.3 10 1.2
 200 0.4 10 1.3 /
/

REGIONS
FIPNUM
 10*1 20*2  /
/

SOLUTION
PRESSURE
 100*2500 /
OILSAT
 100*0.8 /
/

WELSPECS
 'P1' 'PROD'  5 5 1   /
 'I1' 'INJE'  2 2 1   /
/

COMPDAT
 'P1' 5 5 1 1 OPEN /
 'I1' 2 2 1 1 OPEN /
/

WCONPROD
 'P1' OPEN ORAT 5000  / 

WCONINJE
 'I1' WATER OPEN RATE 3000 /
/

SUMMARY
 WBHP:P1
 WWIR:I1
/

SCHEDULE
TSTEP
 30 /
/

ENDDD
